head	1.1;
branch	1.1.1;
access;
symbols
	tg-mergetmp-2:1.1.1.3
	cvs-200410241530:1.1.1.3
	cvs-200410012000:1.1.1.3
	cvs-200407221130:1.1.1.3
	cvs-200407141120:1.1.1.3
	cvs-200406231010:1.1.1.3
	MIRBSD_7quater:1.1.1.2
	cvs-200405271510:1.1.1.3
	XFree86_4_4_0:1.1.9.1
	cvs-200403021700:1.1.1.3
	XFREE86_20040213:1.1.9.1
	xc:1.1.9
	cvs-200401291925:1.1.1.2
	MIRBSD_7_ALPHA:1.1.1.2.0.4
	MIRBSD_7:1.1.1.2.0.2
	MIRBSD_7ter:1.1.1.2
	cvs-20011091815:1.1.1.2
	cvs-200309162130:1.1.1.2
	cvs-200308302005:1.1.1.2
	ctmx-0387:1.1.1.2
	ctmx-0384:1.1.1.2
	MIRBSD_5:1.1.1.2
	ctmx-0375:1.1.1.2
	ctmx-0373:1.1.1.2
	ctm-0371:1.1.1.2
	ctm-0370:1.1.1.2
	MIRBSD_4:1.1.1.2
	ctm-0363:1.1.1.2
	ctm-0359:1.1.1.2
	ctm-0349:1.1.1.1
	openbsd:1.1.1;
locks; strict;
comment	@# @;


1.1
date	2003.03.22.20.06.39;	author tg;	state Exp;
branches
	1.1.1.1
	1.1.9.1;
next	;

1.1.1.1
date	2003.03.22.20.06.39;	author tg;	state Exp;
branches;
next	1.1.1.2;

1.1.1.2
date	2003.04.08.18.35.32;	author tg;	state Exp;
branches;
next	1.1.1.3;

1.1.1.3
date	2004.03.02.18.14.30;	author tg;	state Stab;
branches;
next	;

1.1.9.1
date	2004.02.14.19.22.26;	author tg;	state Exp;
branches;
next	;


desc
@@


1.1
log
@Initial revision
@
text
@XCOMM $XConsortium: Imakefile /main/34 1996/10/27 11:05:08 kaleb $





XCOMM $XFree86: xc/programs/Xserver/hw/xfree86/common/Imakefile,v 3.138 2001/10/09 19:31:05 herrb Exp $



#include <Server.tmpl>

#ifdef i386MachArchitecture
#ifdef GNUMachArchitecture
        KBD = xf86Kbd
#else
        KBD = xf86KbdMach
#endif /* GNUMachArchitecture */
#else
# if defined(i386BsdArchitecture) || defined(AlphaBsdArchitecture) \
	|| defined(OpenBSDArchitecture) || defined(NetBSDArchitecture)
        KBD = xf86KbdBSD
# else
#  ifdef LinuxArchitecture
        KBD = xf86KbdLnx
#  else
        KBD = xf86Kbd
#  endif
# endif
#endif

#if defined(SparcArchitecture) && !defined(OpenBSDArchitecture)
        SBUSSRC = xf86sbusBus.c
        SBUSOBJ = xf86sbusBus.o
#endif

#if BuildXKB
     XKBDDXSRC = xf86XKB.c
     XKBDDXOBJ = xf86XKB.o
#endif

#if BuildDebug
     DEBUGSRC = xf86Debug.c
     DEBUGOBJ = xf86Debug.o
#endif

#if BuildXInputExt
 XF86_XINPUT_SRC = xf86Xinput.c xisb.c
 XF86_XINPUT_OBJ = xf86Xinput.o xisb.o
#endif

#if BuildXF86DGA
  XF86_DGA_SRC = xf86DGA.c
  XF86_DGA_OBJ = xf86DGA.o
#endif

MODPATHDEFINES = -DDEFAULT_MODULE_PATH=\"$(MODULEDIR)\"
LOGDEFINES = -DDEFAULT_LOGPREFIX=\"$(LOGDIRECTORY)/XLogFile.\"

#if DoLoadableServer
EXT_MODULES_DEFINES = $(GLX_DEFINES)
#endif

#ifndef XF86ExpireServer
#define XF86ExpireServer	NO
#endif

#if XF86ExpireServer
      BETASRC = xf86Beta.c
      BETAOBJ = xf86Beta.o
     BETADEFS = -DDO_CHECK_BETA
#ifndef NeedXF86Beta
#define NeedXF86Beta YES
#endif
#endif

#ifndef NeedXF86Beta
#define NeedXF86Beta NO
#endif

#if XF86ExpireServer
EXP_FORCE_DEFINES = -DSHOW_BETA_MESSAGE -DEXPIRE_SERVER
#endif

SRCS =	\
	xf86Configure.c \
	xf86Bus.c \
	xf86isaBus.c \
	xf86pciBus.c \
	xf86fbBus.c \
	xf86IniExt.c \
	xf86Config.c \
	xf86Cursor.c \
	$(XF86_DGA_SRC) \
	xf86DPMS.c \
	xf86DefModeSet.c \
	xf86DoProbe.c \
	xf86DoScanPci.c \
	xf86Events.c \
	xf86Globals.c \
	xf86Helper.c \
	xf86Init.c \
	xf86Io.c \
	xf86MiscExt.c \
	xf86Mode.c \
	xf86Option.c \
	xf86VidMode.c \
	xf86fbman.c \
	xf86xv.c \
	xf86xvmc.c \
	xf86cmap.c\
	xf86PM.c \
	$(DEBUGSRC) \
	$(KBD).c \
	$(SBUSSRC) \
	$(XF86_XINPUT_SRC) \
	$(XINPUT_DEV_SRCS) \
	$(XKBDDXSRC) \
	$(BETASRC) \
	$(SERVERSRCS)

OBJS = \
	xf86Configure.o \
	xf86Bus.o \
	xf86isaBus.o \
	xf86pciBus.o \
	xf86fbBus.o \
	xf86Config.o \
	xf86Cursor.o \
	$(XF86_DGA_OBJ) \
	xf86DPMS.o \
	xf86DefModeSet.o \
	xf86DoProbe.o \
	xf86DoScanPci.o \
	xf86Events.o \
	xf86Globals.o \
	xf86Helper.o \
	xf86Io.o \
	xf86MiscExt.o \
	xf86Mode.o \
	xf86Option.o \
	xf86VidMode.o \
	xf86fbman.o \
	xf86xv.o \
	xf86xvmc.o \
	xf86cmap.o\
	xf86PM.o \
	$(DEBUGOBJ) \
	$(SBUSOBJ) \
	$(XF86_XINPUT_OBJ) \
	$(XKBDDXOBJ) \
	$(BETAOBJ) \
	$(KBD).o


OFILES = \
	xf86Init.o \
	xf86IniExt.o

   VGAINCLUDES = -I$(XF86SRC)/vgahw
   INCLUDES =	-I. -I$(XF86OSSRC) -I$(XF86OSSRC)/bus -I$(SERVERSRC)/mfb \
		-I$(SERVERSRC)/mi -I$(SERVERSRC)/include -I$(SERVERSRC)/os \
		-I$(XINCLUDESRC) -I$(SERVERSRC)/Xext -I$(EXTINCSRC) \
		-I$(SERVERSRC)/Xi -I$(XF86SRC)/ddc -I$(XF86SRC)/i2c \
		-I$(FONTLIBSRC)/include -I$(FONTINCSRC) \
		-I$(XF86SRC) -I$(XF86PARSERSRC) \
		-I$(XF86SRC)/loader $(VGAINCLUDES) -I$(XF86SRC)/rac \
	        -I$(XF86SRC)/scanpci -I$(XF86OSSRC)/vbe -I$(XF86SRC)/int10 \
		-I$(XF86SRC)/ddc

     OSNAME = OSName
   OSVENDOR = OSVendor
  OSNAMEDEF = -DOSNAME='" $(OSNAME)"' -DOSVENDOR='" $(OSVENDOR)"'
#if defined(XFree86CustomVersion)
CUSTOMVERSION = XFree86CustomVersion
 CUSTOMVERDEF = -DXF86_CUSTOM_VERSION='$(CUSTOMVERSION)'
#endif
#if defined(BuilderString)
  BUILDERSTRING = BuilderString
  BUILDERMSG = -DBUILDERSTRING='$(BUILDERSTRING)'
#endif
CONSDEFINES = XFree86ConsoleDefines
EXP_DEFINES = -DEXPIRY_TIME=XF86ServerExpiry $(EXP_FORCE_DEFINES)
    DRIVERS = XF86CardDrivers
   IDRIVERS = XInputDrivers
XCONFIGDEFINES = -DPROJECTROOT='"$(PROJECTROOT)"' \
		 -DDRIVERS='"$(DRIVERS)"' \
		 -DIDRIVERS='"$(IDRIVERS)"'
XF86CONFIGFILE = XConfigFile
XCONFIGUREDEFINES = -DXF86CONFIGFILE='"$(XF86CONFIGFILE)"'

    DEFINES = $(CONSDEFINES) $(KBDDEFINES) $(EXT_DEFINES) $(OS_DEFINES)

AllTarget($(OFILES))

SpecialCObjectRule(xf86Bus,NullParameter,$(BUGMSG) $(VGAINCLUDES))
SpecialCObjectRule(xf86Init,$(ICONFIGFILES),$(OSNAMEDEF) $(BUILDERMSG) $(BUGMSG) $(CUSTOMVERDEF) $(EXT_DEFINES) $(BETADEFS))
SpecialCObjectRule(xf86Events,$(ICONFIGFILES),$(EXT_DEFINES))
SpecialCObjectRule(xf86Globals,$(ICONFIGFILES),$(EXT_DEFINES) $(MODPATHDEFINES) $(LOGDEFINES))
SpecialCObjectRule(xf86Config,$(ICONFIGFILES),$(XCONFIGDEFINES))
SpecialCObjectRule(xf86Configure,$(ICONFIGFILES),$(XCONFIGUREDEFINES))

#if NeedXF86Beta
SpecialCObjectRule($(BETAOBJ),NullParameter,$(EXP_DEFINES))
#endif

SpecialCObjectRule(xf86IniExt,$(ICONFIGFILES),$(EXT_DEFINES) $(EXT_MODULES_DEFINES))

NormalLibraryObjectRule()
NormalLibraryTarget(xf86,$(OBJS))

LinkFile(xf86IniExt.c,$(SERVERSRC)/mi/miinitext.c)
LinkSourceFile(xf86Version.h,..)
LinkSourceFile(xf86Pci.h,$(XF86OSSRC)/bus)
#ifdef SparcArchitecture
LinkSourceFile(xf86Sbus.h,$(XF86OSSRC)/bus)
#endif

#if HasPerl
MODEDEFSRCS = ../etc/vesamodes ../etc/extramodes

MODEDEFS = modedefs

$(MODEDEFS): $(MODEDEFSRCS)
	RemoveFile($@@)
	cat $(MODEDEFSRCS) > $@@

includes:: xf86DefModeSet.c

xf86DefModeSet.c: $(MODEDEFS) modeline2c.pl
	RemoveFile($@@)
	RunPerlScript(modeline2c.pl, < $(MODEDEFS) > $@@)

clean::
	RemoveFile($(MODEDEFS))
	RemoveFile(xf86DefModeSet.c)
#else
LinkFile(xf86DefModeSet.c,xf86DefModes.c)
#endif

#ifndef OS2Architecture
DependTarget()
#endif

InstallDriverSDKNonExecFile(compiler.h,$(DRIVERSDKINCLUDEDIR))
InstallDriverSDKNonExecFile(fourcc.h,$(DRIVERSDKINCLUDEDIR))
InstallDriverSDKNonExecFile(xf86.h,$(DRIVERSDKINCLUDEDIR))
InstallDriverSDKNonExecFile(xf86Module.h,$(DRIVERSDKINCLUDEDIR))
InstallDriverSDKNonExecFile(xf86Opt.h,$(DRIVERSDKINCLUDEDIR))
InstallDriverSDKNonExecFile(xf86Pci.h,$(DRIVERSDKINCLUDEDIR))
InstallDriverSDKNonExecFile(xf86PciInfo.h,$(DRIVERSDKINCLUDEDIR))
InstallDriverSDKNonExecFile(xf86Priv.h,$(DRIVERSDKINCLUDEDIR))
InstallDriverSDKNonExecFile(xf86Privstr.h,$(DRIVERSDKINCLUDEDIR))
InstallDriverSDKNonExecFile(xf86Resources.h,$(DRIVERSDKINCLUDEDIR))
InstallDriverSDKNonExecFile(xf86Version.h,$(DRIVERSDKINCLUDEDIR))
InstallDriverSDKNonExecFile(xf86Xinput.h,$(DRIVERSDKINCLUDEDIR))
InstallDriverSDKNonExecFile(xf86cmap.h,$(DRIVERSDKINCLUDEDIR))
InstallDriverSDKNonExecFile(xf86fbman.h,$(DRIVERSDKINCLUDEDIR))
InstallDriverSDKNonExecFile(xf86str.h,$(DRIVERSDKINCLUDEDIR))
InstallDriverSDKNonExecFile(xf86xv.h,$(DRIVERSDKINCLUDEDIR))
InstallDriverSDKNonExecFile(xf86xvmc.h,$(DRIVERSDKINCLUDEDIR))
@


1.1.9.1
log
@OpenBSD just has imported exactly this tree into their vendor branch,
called the same tag, in XF4/xc
This is, apparently, the last XFree86 snapshot before the licence change
(ie, addition of the advertising clause)

Since the developers don't see any problems with that, and we would like
to integrate improvements done by the remaining one or two (or so) XFree86
developers (j/k), this prepares enabling us to update X-Window in the future.
@
text
@d7 1
a7 1
XCOMM $XFree86: xc/programs/Xserver/hw/xfree86/common/Imakefile,v 3.155 2004/01/27 01:29:02 dawes Exp $
d21 1
a21 2
	|| defined(OpenBSDArchitecture) || defined(NetBSDArchitecture) \
	|| defined(FreeBSDArchitecture)
d32 1
a32 1
#if defined(SparcArchitecture) || defined(Sparc64Architecture)
d52 3
a54 4
#if BuildRandR
 RANDRINCS = -I../../../randr
  RANDRSRC = xf86RandR.c
  RANDROBJ = xf86RandR.o
a63 4
#if UseMemLeak
MDEBUGDEFS = -DMEMDEBUG
#endif

a90 1
	xf86noBus.c \
a92 1
	xf86AutoConfig.c \
d94 1
a94 1
	xf86DGA.c \
a112 1
	xf86Versions.c \
d120 1
a120 2
	$(SERVERSRCS) \
        $(RANDRSRC)
a127 1
	xf86noBus.o \
a128 1
	xf86AutoConfig.o \
d130 1
a130 1
	xf86DGA.o \
a147 1
	xf86Versions.o \
d153 2
a154 2
	$(KBD).o \
        $(RANDROBJ)
d168 2
a169 2
	        -I$(XF86SRC)/scanpci -I$(XF86SRC)/vbe -I$(XF86SRC)/int10 \
		-I$(XF86SRC)/ddc -I$(SERVERSRC)/render $(RANDRINCS)
a181 3
       XORGREL = XOrgReleaseString
   XORGREL_DEF = -DXORG_RELEASE='"$(XORGREL)"'

a186 1
		 -DBINDIR='"$(BINDIR)"' \
d197 2
a198 2
SpecialCObjectRule(xf86Init,$(ICONFIGFILES),$(OSNAMEDEF) $(BUILDERMSG) $(BUGMSG) $(CUSTOMVERDEF) $(XORGREL_DEF) $(EXT_DEFINES) $(BETADEFS) $(MDEBUGDEFS))
SpecialCObjectRule(xf86Events,$(ICONFIGFILES),$(EXT_DEFINES) $(MDEBUGDEFS))
a199 1
SpecialCObjectRule(xf86AutoConfig,$(ICONFIGFILES),$(XCONFIGDEFINES))
d241 1
d243 1
a261 1
InstallDriverSDKNonExecFile(xisb.h,$(DRIVERSDKINCLUDEDIR))
@


1.1.1.1
log
@Import OpenBSD 3.3 XF4 repository from CTM 3132 the first time
This finalizes starting an OpenBSD-mirabile (aka MirBSD) repository.

### MirBSD is:
# Copyright (c) 1982-2003 by Thorsten "mirabile" Glaser <x86@@ePost.de>
# Copyright © 1968-2003  The authors of And contributors to UNIX®, the
#       C Language, BSD/Berkeley Unix; 386BSD, NetBSD 1.1 and OpenBSD.
#
# Anyone who obtained a copy of this work is hereby permitted to freely use,
# distribute, modify, merge, sublicence, give away or sell it as long as the
# authors are given due credit and the following notice is retained:
#
# This work is provided "as is", with no explicit or implicit warranty what-
# soever. Use it only at your own risk. In no event may an author or contri-
# butor be held liable for any damage, directly or indirectly, that origina-
# ted through or is caused by creation or modification of this work.

MirBSD is my private tree. MirBSD does not differ very much from OpenBSD
and intentionally tracks OpenBSD. That's why it _is_ OpenBSD, just not the
official one. It's like with DarrenBSD.

At time of this writing, no advertising for MirBSD must be done,
because the advertising clause has not yet been sorted out.

http://templeofhate.com/tglaser/MirBSD/index.php
@
text
@@


1.1.1.2
log
@The X-Windowing System

Import XFree86 4.3 from OpenBSD by CTM, in the hope it's stable
@
text
@d7 1
a7 1
XCOMM $XFree86: xc/programs/Xserver/hw/xfree86/common/Imakefile,v 3.148 2003/02/17 17:06:41 dawes Exp $
a51 6
#if BuildRandR
 RANDRINCS = -I../../../randr
  RANDRSRC = xf86RandR.c
  RANDROBJ = xf86RandR.o
#endif

a63 4
#if UseMemLeak
MDEBUGDEFS = -DMEMDEBUG
#endif

a90 1
	xf86noBus.c \
d120 1
a120 2
	$(SERVERSRCS) \
        $(RANDRSRC)
a127 1
	xf86noBus.o \
d153 2
a154 2
	$(KBD).o \
        $(RANDROBJ)
d168 2
a169 2
	        -I$(XF86SRC)/scanpci -I$(XF86SRC)/vbe -I$(XF86SRC)/int10 \
		-I$(XF86SRC)/ddc -I$(SERVERSRC)/render $(RANDRINCS)
a181 6
#if defined(BuildDate)
    BUILD_DATE = BuildDate
#endif
       XORGREL = XOrgReleaseString
   XORGREL_DEF = -DXORG_RELEASE='"$(XORGREL)"'

d197 2
a198 2
SpecialCObjectRule(xf86Init,$(ICONFIGFILES),$(OSNAMEDEF) $(BUILDERMSG) $(BUGMSG) $(CUSTOMVERDEF) $(XORGREL_DEF) $(EXT_DEFINES) $(BETADEFS) $(MDEBUGDEFS))
SpecialCObjectRule(xf86Events,$(ICONFIGFILES),$(EXT_DEFINES) $(MDEBUGDEFS))
d241 2
a242 25
includes:: xf86Build.h

clean::
	RemoveFile(xf86Build.h)

#if defined(BuildDate)
xf86Build.h: FRC
	echo "#define BUILD_DATE $(BUILD_DATE)" > xf86Build.h.new
	@@if test -f xf86Build.h ; then  \
		if cmp -s xf86Build.h.new xf86Build.h ; then  \
			rm -f xf86Build.h.new ; \
		else  \
			mv xf86Build.h.new xf86Build.h ; \
			echo "xf86Build.h changed" ; \
		fi  \
	else  \
		mv xf86Build.h.new xf86Build.h ; \
		echo "xf86Build.h created" ; \
	fi

FRC:
#else
xf86Build.h:
	RemoveFile($@@)
	echo "" > $@@
a243 2

DependTarget()
@


1.1.1.3
log
@That's what OpenBSD will, probably, ship as XF4 in 3.5
their last sync against XFree86 4.3-current has been
imported into our vendor branch, too
@
text
@d7 1
a7 1
XCOMM $XFree86: xc/programs/Xserver/hw/xfree86/common/Imakefile,v 3.155 2004/01/27 01:29:02 dawes Exp $
d21 1
a21 2
	|| defined(OpenBSDArchitecture) || defined(NetBSDArchitecture) \
	|| defined(FreeBSDArchitecture)
d32 1
a32 2
#if (defined(SparcArchitecture) || defined(Sparc64Architecture)) \
	&& !defined(OpenBSDArchitecture)
a103 1
	xf86AutoConfig.c \
a123 1
	xf86Versions.c \
a141 1
	xf86AutoConfig.o \
a160 1
	xf86Versions.o \
d195 3
a205 1
		 -DBINDIR='"$(BINDIR)"' \
a218 1
SpecialCObjectRule(xf86AutoConfig,$(ICONFIGFILES),$(XCONFIGDEFINES))
d260 27
a305 1
InstallDriverSDKNonExecFile(xisb.h,$(DRIVERSDKINCLUDEDIR))
@


